data_genice_CS1
#
#[A15] Frank, F.C., and JS Kasper. “Complex Alloy Structures Regarded as Sphere Packings. II. Analysis and Classification of Representative Structures.” Acta Crystallographica 12.7 (1959): 483–499.
#[sI] Jeffrey, G A. “Hydrate Inclusion Compounds.” Inclusion Compounds 1 (1984): 135–190.
#[CS1] Kosyakov, Viktor I, and T M Polyanskaya. “Using Structural Data for Estimating the Stability of Water Networks in Clathrate and Semiclathrate Hydrates.” Journal of Structural Chemistry 40.2 (1999): 239–245.
#[MEP] http://www.iza-structure.org/databases/
#
_cell_length_a                12.003488636143597
_cell_length_b                12.003488636143597
_cell_length_c                24.006977272287195
_cell_angle_alpha             90.0
_cell_angle_beta              90.0
_cell_angle_gamma             90.0

_symmetry_cell_setting        'orthorhombic'
_symmetry_space_group_name_H-M   'P 1 '

loop_
  _symmetry_equiv_pos_as_xyz
X,Y,Z

loop_
_atom_site_label
_atom_site_type_symbol
_atom_site_fract_x
_atom_site_fract_y
_atom_site_fract_z
    O0     O    0.8825    0.3017    0.0020
    H1     H    0.9608    0.3153    0.0006
    H2     H    0.8494    0.3745    0.0016
    O3     O    0.3047    0.0033    0.0581
    H4     H    0.3774    0.0012    0.0756
    H5     H    0.3198    0.0012    0.0195
    O6     O   -0.0077    0.2491    0.2470
    H7     H   -0.0045    0.2057    0.2805
    H8     H    0.0583    0.2935    0.2479
    O9     O    0.6847    0.3094    0.3431
   H10     H    0.7265    0.3377    0.3121
   H11     H    0.6627    0.3743    0.3633
   O12     O    0.1832    0.1855    0.0919
   H13     H    0.2237    0.1200    0.0810
   H14     H    0.1221    0.1578    0.1132
   O15     O    0.0000    0.7534    0.2539
   H16     H   -0.0012    0.7969    0.2201
   H17     H   -0.0637    0.7068    0.2513
   O18     O    0.1814    0.8153    0.0888
   H19     H    0.2288    0.7717    0.1126
   H20     H    0.2258    0.8778    0.0785
   O21     O    0.5077    0.8108    0.1911
   H22     H    0.4436    0.7671    0.1802
   H23     H    0.5052    0.8114    0.2305
   O24     O    0.6113    0.4925    0.4058
   H25     H    0.6356    0.5561    0.3840
   H26     H    0.6568    0.4939    0.4378
   O27     O    0.8235    0.1862    0.4094
   H28     H    0.7785    0.1235    0.4207
   H29     H    0.7757    0.2295    0.3866
   O30     O    0.3194    0.3256    0.1571
   H31     H    0.3811    0.2809    0.1681
   H32     H    0.2734    0.2764    0.1354
   O33     O    0.1819    0.3839    0.2485
   H34     H    0.2248    0.3620    0.2798
   H35     H    0.2268    0.3634    0.2168
   O36     O    0.3200    0.6872    0.1596
   H37     H    0.3393    0.6212    0.1390
   H38     H    0.2766    0.6607    0.1900
   O39     O    0.3093    0.3153    0.3388
   H40     H    0.3743    0.2750    0.3294
   H41     H    0.3360    0.3772    0.3610
   O42     O    0.6872   -0.0003    0.0552
   H43     H    0.7301    0.0632    0.0673
   H44     H    0.7290   -0.0629    0.0674
   O45     O    0.5034    0.1986    0.1888
   H46     H    0.5028    0.1265    0.1723
   H47     H    0.5016    0.1845    0.2283
   O48     O    0.8081    0.8176    0.0924
   H49     H    0.8353    0.7761    0.0621
   H50     H    0.8744    0.8397    0.1129
   O51     O    0.4983    0.8160    0.3057
   H52     H    0.4360    0.7731    0.3169
   H53     H    0.5621    0.7725    0.3171
   O54     O    0.8086    0.3882    0.2515
   H55     H    0.7660    0.3645    0.2201
   H56     H    0.8733    0.3411    0.2511
   O57     O    0.3091   -0.0060    0.4387
   H58     H    0.3082   -0.0044    0.4787
   H59     H    0.2672    0.0579    0.4278
   O60     O    0.4948    0.1892    0.3064
   H61     H    0.5594    0.2327    0.3182
   H62     H    0.4966    0.1254    0.3288
   O63     O    0.3228    0.6811    0.3412
   H64     H    0.2752    0.7268    0.3636
   H65     H    0.2772    0.6592    0.3104
   O66     O    0.8817    0.6981    0.0015
   H67     H    0.9602    0.6840    0.0009
   H68     H    0.8483    0.6258    0.0014
   O69     O    0.8125    0.8104    0.4087
   H70     H    0.7739    0.8759    0.4199
   H71     H    0.8744    0.8373    0.3870
   O72     O    0.0052    0.1142    0.1540
   H73     H    0.0031    0.1594    0.1864
   H74     H   -0.0586    0.1376    0.1325
   O75     O    0.8176    0.1803    0.0921
   H76     H    0.7728    0.2288    0.1147
   H77     H    0.8399    0.2253    0.0614
   O78     O    0.8158    0.6157    0.2513
   H79     H    0.8137    0.5374    0.2506
   H80     H    0.7713    0.6383    0.2193
   O81     O    0.7593    0.5017    0.0017
   H82     H    0.7115    0.5024   -0.0305
   H83     H    0.7096    0.5010    0.0326
   O84     O   -0.0021    0.8829    0.3463
   H85     H   -0.0016    0.9630    0.3394
   H86     H   -0.0025    0.8508    0.3106
   O87     O    0.6781    0.6794    0.3417
   H88     H    0.7247    0.7253    0.3638
   H89     H    0.7245    0.6574    0.3107
   O90     O    0.4986    0.0022    0.1255
   H91     H    0.5023   -0.0637    0.1477
   H92     H    0.5643   -0.0005    0.1028
   O93     O   -0.0006    0.1172    0.3434
   H94     H    0.0631    0.1399    0.3647
   H95     H   -0.0630    0.1400    0.3653
   O96     O    0.1965    0.6174    0.2501
   H97     H    0.1237    0.6525    0.2506
   H98     H    0.1812    0.5403    0.2496
   O99     O    0.3838    0.5001    0.0976
  H100     H    0.3363    0.4998    0.0642
  H101     H    0.3613    0.4379    0.1177
  O102     O    0.3768    0.5002    0.4070
  H103     H    0.3573    0.5620    0.3846
  H104     H    0.4574    0.4993    0.4066
  O105     O    0.1827    0.1799    0.4065
  H106     H    0.2271    0.2277    0.3844
  H107     H    0.1617    0.2248    0.4383
  O108     O   -0.0011    0.8824    0.1563
  H109     H    0.0619    0.8606    0.1339
  H110     H    0.0001    0.9615    0.1557
  O111     O    0.1122    0.6913   -0.0020
  H112     H    0.1372    0.7344    0.0292
  H113     H    0.1580    0.6262   -0.0014
  O114     O    0.1165    0.3127   -0.0019
  H115     H    0.1381    0.2689    0.0305
  H116     H    0.1391    0.2696   -0.0325
  O117     O    0.6919    0.3155    0.1603
  H118     H    0.6273    0.2750    0.1701
  H119     H    0.6645    0.3775    0.1383
  O120     O    0.6855    0.6781    0.1576
  H121     H    0.6233    0.7234    0.1695
  H122     H    0.7290    0.7262    0.1351
  O123     O    0.6175    0.4960    0.0941
  H124     H    0.5374    0.4968    0.0953
  H125     H    0.6393    0.5593    0.1154
  O126     O    0.1869    0.8104    0.4087
  H127     H    0.1237    0.8377    0.3870
  H128     H    0.2259    0.8748    0.4189
  O129     O    0.5071    0.0065    0.3734
  H130     H    0.4402    0.0035    0.3957
  H131     H    0.5042   -0.0587    0.3512
  O132     O    0.2471    0.5051    0.0022
  H133     H    0.2039    0.4387    0.0009
  H134     H    0.2921    0.5025   -0.0310
  O135     O    0.6993    0.0022    0.4420
  H136     H    0.6829    0.0006    0.4802
  H137     H    0.6265    0.0021    0.4238
  O138     O    0.8839    0.3147    0.5005
  H139     H    0.8610    0.2702    0.5322
  H140     H    0.8624    0.2723    0.4692
  O141     O    0.3103    0.0001    0.5566
  H142     H    0.2675   -0.0631    0.5691
  H143     H    0.2683    0.0630    0.5684
  O144     O   -0.0051    0.2481    0.7536
  H145     H   -0.0022    0.2028    0.7211
  H146     H    0.0611    0.2933    0.7516
  O147     O    0.6738    0.3168    0.8410
  H148     H    0.7216    0.2712    0.8637
  H149     H    0.7198    0.3398    0.8107
  O150     O    0.1919    0.1776    0.5918
  H151     H    0.1265    0.1571    0.6127
  H152     H    0.1642    0.2212    0.5618
  O153     O    0.0024    0.7517    0.7489
  H154     H   -0.0010    0.7951    0.7823
  H155     H   -0.0641    0.7078    0.7495
  O156     O    0.1856    0.8218    0.5908
  H157     H    0.2292    0.7756    0.6138
  H158     H    0.1217    0.8415    0.6136
  O159     O    0.4964    0.8017    0.6886
  H160     H    0.4970    0.8161    0.7283
  H161     H    0.4971    0.8734    0.6721
  O162     O    0.6231    0.5076    0.9055
  H163     H    0.6441    0.4445    0.8842
  H164     H    0.5427    0.5061    0.9056
  O165     O    0.8082    0.1787    0.9095
  H166     H    0.8734    0.1575    0.8890
  H167     H    0.8361    0.2213    0.9402
  O168     O    0.3180    0.3135    0.6616
  H169     H    0.3387    0.3767    0.6388
  H170     H    0.2739    0.2685    0.6379
  O171     O    0.1901    0.3801    0.7498
  H172     H    0.1919    0.4606    0.7494
  H173     H    0.2336    0.3587    0.7186
  O174     O    0.3109    0.6873    0.6575
  H175     H    0.3375    0.6246    0.6359
  H176     H    0.3763    0.7262    0.6679
  O177     O    0.3190    0.3209    0.8404
  H178     H    0.2715    0.2741    0.8630
  H179     H    0.2741    0.3408    0.8095
  O180     O    0.6884    0.0014    0.5553
  H181     H    0.7309   -0.0619    0.5673
  H182     H    0.6241    0.0011    0.5787
  O183     O    0.5021    0.1904    0.6891
  H184     H    0.5020    0.1897    0.7298
  H185     H    0.4393    0.2324    0.6794
  O186     O    0.8149    0.8191    0.5914
  H187     H    0.7713    0.7706    0.6133
  H188     H    0.8383    0.7740    0.5599
  O189     O    0.4941    0.8113    0.8067
  H190     H    0.5575    0.7669    0.8185
  H191     H    0.4972    0.8756    0.8293
  O192     O    0.8031    0.3855    0.7497
  H193     H    0.8181    0.4627    0.7492
  H194     H    0.8760    0.3507    0.7503
  O195     O    0.3118    0.0018    0.9430
  H196     H    0.3758    0.0005    0.9193
  H197     H    0.2689   -0.0616    0.9318
  O198     O    0.5043    0.1820    0.8086
  H199     H    0.4387    0.2268    0.8188
  H200     H    0.5648    0.2255    0.8190
  O201     O    0.3199    0.6803    0.8458
  H202     H    0.3792    0.7247    0.8322
  H203     H    0.2786    0.6594    0.8128
  O204     O    0.8838    0.6920    0.5002
  H205     H    0.8623    0.7352    0.4680
  H206     H    0.9628    0.6922    0.4995
  O207     O    0.8192    0.8182    0.9069
  H208     H    0.8392    0.7786    0.9400
  H209     H    0.7754    0.8797    0.9199
  O210     O    0.0064    0.1154    0.6579
  H211     H   -0.0579    0.1378    0.6363
  H212     H    0.0042    0.0367    0.6577
  O213     O    0.8195    0.1799    0.5929
  H214     H    0.7713    0.2254    0.6151
  H215     H    0.7736    0.1190    0.5812
  O216     O    0.8119    0.6166    0.7479
  H217     H    0.7696    0.6395    0.7170
  H218     H    0.7674    0.6383    0.7800
  O219     O    0.7407    0.4962    0.5006
  H220     H    0.7885    0.4352    0.5006
  H221     H    0.7904    0.5613    0.4999
  O222     O   -0.0022    0.8856    0.8447
  H223     H   -0.0645    0.8638    0.8661
  H224     H    0.0616    0.8618    0.8664
  O225     O    0.6790    0.6815    0.8388
  H226     H    0.6590    0.6214    0.8612
  H227     H    0.7261    0.7281    0.8629
  O228     O    0.5020   -0.0037    0.6248
  H229     H    0.4355   -0.0010    0.6027
  H230     H    0.4995    0.0628    0.6467
  O231     O   -0.0014    0.1146    0.8486
  H232     H   -0.0016    0.0370    0.8414
  H233     H   -0.0014    0.1488    0.8122
  O234     O    0.1949    0.6112    0.7516
  H235     H    0.1291    0.6576    0.7517
  H236     H    0.2360    0.6355    0.7201
  O237     O    0.3772    0.5021    0.5964
  H238     H    0.4581    0.5006    0.5903
  H239     H    0.3468    0.5023    0.5607
  O240     O    0.3831    0.4969    0.9060
  H241     H    0.3622    0.5611    0.8849
  H242     H    0.3597    0.4351    0.8837
  O243     O    0.1860    0.1875    0.9100
  H244     H    0.1239    0.1600    0.8887
  H245     H    0.2270    0.1226    0.9198
  O246     O    0.0006    0.8853    0.6556
  H247     H   -0.0628    0.8607    0.6339
  H248     H   -0.0006    0.8398    0.6878
  O249     O    0.1095    0.6833    0.5014
  H250     H    0.1332    0.7267    0.5327
  H251     H    0.1336    0.7250    0.4697
  O252     O    0.1203    0.3030    0.5014
  H253     H    0.0421    0.3173    0.5010
  H254     H    0.1539    0.3756    0.5010
  O255     O    0.6813    0.3185    0.6563
  H256     H    0.6203    0.2762    0.6700
  H257     H    0.7219    0.3403    0.6893
  O258     O    0.6920    0.6857    0.6584
  H259     H    0.6656    0.6229    0.6379
  H260     H    0.6258    0.7255    0.6688
  O261     O    0.6125    0.5015    0.5979
  H262     H    0.6357    0.4386    0.6187
  H263     H    0.6582    0.4997    0.5647
  O264     O    0.1807    0.8187    0.9101
  H265     H    0.1594    0.7739    0.9404
  H266     H    0.2284    0.7710    0.8877
  O267     O    0.4995   -0.0036    0.8730
  H268     H    0.5653   -0.0001    0.8959
  H269     H    0.5020    0.0627    0.8513
  O270     O    0.2531    0.4996    0.5025
  H271     H    0.2058    0.5646    0.5011
  H272     H    0.2954    0.5029    0.4691
  O273     O    0.6859    0.0002    0.9381
  H274     H    0.7296    0.0618    0.9282
  H275     H    0.6876   -0.0005    0.9788
G14276   G14    0.5000    0.7500    0.0000
G14277   G14    0.0000    0.5000    0.1250
G14278   G14    0.7500    0.0000    0.7500
G14279   G14    0.5000    0.2500    0.5000
G14280   G14    0.2500    0.0000    0.7500
G14281   G14    0.7500    0.0000    0.2500
 Me282    Me    0.5000    0.5000    0.2500

