data_genice_CS2
#
#Data source:
#[ice 16] Falenty, A., Hansen, T. C. & Kuhs, W. F. Formation and properties of ice XVI obtained by emptying a type sII clathrate hydrate. Nature 516, 231-233 (2014).
#[C15] Dutour Sikirić, Mathieu, Olaf Delgado-Friedrichs, and Michel Deza. “Space Fullerenes: a Computer Search for New Frank-Kasper Structures” Acta Crystallographica Section A Foundations of Crystallography 66.Pt 5 (2010): 602–615.
#[sII] Jeffrey, G A. “Hydrate Inclusion Compounds.” Inclusion Compounds 1 (1984): 135–190.
#[CS2] Kosyakov, Viktor I, and T M Polyanskaya. “Using Structural Data for Estimating the Stability of Water Networks in Clathrate and Semiclathrate Hydrates.” Journal of Structural Chemistry 40.2 (1999): 239–245.
#[MTN] http://www.iza-structure.org/databases/
#
_cell_length_a                17.120977156117426
_cell_length_b                17.120977156117426
_cell_length_c                34.24195431223485
_cell_angle_alpha             90.0
_cell_angle_beta              90.0
_cell_angle_gamma             90.0

_symmetry_cell_setting        'orthorhombic'
_symmetry_space_group_name_H-M   'P 1 '

loop_
  _symmetry_equiv_pos_as_xyz
X,Y,Z

loop_
_atom_site_label
_atom_site_fract_x
_atom_site_fract_y
_atom_site_fract_z
_atom_site_type_symbol
    O0    0.3118    0.9309    0.0590     O
    H1    0.3356    0.9776    0.0697     H
    H2    0.3523    0.8934    0.0591     H
    O3    0.9376    0.6286    0.2165     O
    H4    0.9132    0.6072    0.2393     H
    H5    0.8972    0.6292    0.1973     H
    O6    0.9309    0.9337    0.0660     O
    H7    0.9771    0.9112    0.0549     H
    H8    0.8931    0.8925    0.0651     H
    O9    0.3713    0.6859    0.0931     O
   H10    0.3700    0.6457    0.0731     H
   H11    0.3184    0.6961    0.0987     H
   O12    0.3211    0.6189    0.2164     O
   H13    0.2735    0.6415    0.2048     H
   H14    0.3579    0.6210    0.1964     H
   O15    0.8242    0.4314    0.0619     O
   H16    0.7773    0.4114    0.0724     H
   H17    0.8111    0.4451    0.0352     H
   O18    0.8741    0.3723    0.4366     O
   H19    0.9064    0.3414    0.4537     H
   H20    0.8433    0.4034    0.4538     H
   O21    0.3185    0.6290    0.4109     O
   H22    0.3066    0.6817    0.4043     H
   H23    0.3390    0.6069    0.3871     H
   O24    0.4348    0.1250    0.4092     O
   H25    0.4465    0.0714    0.4033     H
   H26    0.4122    0.1450    0.3858     H
   O27    0.2130    0.2140    0.3586     O
   H28    0.2667    0.2054    0.3521     H
   H29    0.2038    0.2676    0.3522     H
   O30    0.6273    0.4330    0.4679     O
   H31    0.6289    0.3938    0.4474     H
   H32    0.6802    0.4434    0.4735     H
   O33    0.6160    0.4298    0.1584     O
   H34    0.6425    0.4770    0.1666     H
   H35    0.6420    0.4148    0.1352     H
   O36    0.1285    0.8173    0.4096     O
   H37    0.1820    0.8058    0.4031     H
   H38    0.1071    0.8385    0.3862     H
   O39    0.2818    0.7819    0.3903     O
   H40    0.3143    0.8138    0.4063     H
   H41    0.2954    0.7961    0.3640     H
   O42    0.4329    0.4311    0.0655     O
   H43    0.3927    0.3933    0.0650     H
   H44    0.4091    0.4776    0.0546     H
   O45    0.2194    0.0344    0.2639     O
   H46    0.2061   -0.0193    0.2703     H
   H47    0.1866    0.0648    0.2800     H
   O48    0.6240    0.8168    0.4666     O
   H49    0.6217    0.8568    0.4471     H
   H50    0.5705    0.8061    0.4728     H
   O51    0.1834    0.8788    0.2831     O
   H52    0.1426    0.8781    0.3024     H
   H53    0.1600    0.8569    0.2604     H
   O54    0.1776    0.0659    0.1888     O
   H55    0.1902    0.0544    0.2149     H
   H56    0.2254    0.0876    0.1779     H
   O57    0.4659    0.4691    0.1418     O
   H58    0.5191    0.4552    0.1459     H
   H59    0.4559    0.4552    0.1150     H
   O60    0.9339    0.1261    0.1593     O
   H61    0.9454    0.0724    0.1532     H
   H62    0.8937    0.1233    0.1785     H
   O63    0.8689    0.8739    0.1872     O
   H64    0.9033    0.8423    0.2025     H
   H65    0.9029    0.9062    0.1719     H
   O66    0.1332    0.4314    0.2150     O
   H67    0.1063    0.4160    0.2383     H
   H68    0.1075    0.4782    0.2069     H
   O69    0.1811    0.8714    0.0929     O
   H70    0.1425    0.8720    0.0724     H
   H71    0.2269    0.8921    0.0811     H
   O72    0.4380    0.9288    0.3148     O
   H73    0.4150    0.9765    0.3045     H
   H74    0.3971    0.8922    0.3143     H
   O75    0.1225    0.3197    0.4689     O
   H76    0.1423    0.2731    0.4571     H
   H77    0.1218    0.3573    0.4482     H
   O78    0.6799    0.0658    0.4393     O
   H79    0.6433    0.1070    0.4388     H
   H80    0.7274    0.0885    0.4288     H
   O81    0.8201    0.8182    0.0658     O
   H82    0.8346    0.7714    0.0533     H
   H83    0.7720    0.8339    0.0529     H
   O84    0.8792    0.0702    0.3416     O
   H85    0.8576    0.0235    0.3309     H
   H86    0.9322    0.0569    0.3478     H
   O87    0.9652    0.9720    0.1427     O
   H88    1.0185    0.9572    0.1475     H
   H89    0.9558    0.9570    0.1163     H
   O90    0.0684    0.6778    0.4388     O
   H91    0.0896    0.7254    0.4280     H
   H92    0.0562    0.6906    0.4651     H
   O93    0.7178    0.7182    0.3597     O
   H94    0.7056    0.7040    0.3855     H
   H95    0.6847    0.6850    0.3436     H
   O96    0.8670    0.1880    0.0914     O
   H97    0.8890    0.1656    0.1143     H
   H98    0.8692    0.1469    0.0722     H
   O99    0.5302    0.5310    0.3573     O
  H100    0.5435    0.5440    0.3839     H
  H101    0.5630    0.5635    0.3419     H
  O102    0.6843    0.8739    0.3395     O
  H103    0.6623    0.8951    0.3629     H
  H104    0.6953    0.8205    0.3457     H
  O105    0.0713    0.8773    0.3411     O
  H106    0.0231    0.8563    0.3305     H
  H107    0.0591    0.9296    0.3475     H
  O108    0.5684    0.3747    0.3405     O
  H109    0.6071    0.3771    0.3213     H
  H110    0.5564    0.4294    0.3463     H
  O111    0.3240    0.3172    0.0645     O
  H112    0.3117    0.3055    0.0907     H
  H113    0.2763    0.3391    0.0538     H
  O114    0.3185    0.1276    0.1596     O
  H115    0.3403    0.1072    0.1360     H
  H116    0.3069    0.1811    0.1537     H
  O117    0.1165    0.4299    0.4101     O
  H118    0.1422    0.4141    0.3866     H
  H119    0.1432    0.4766    0.4179     H
  O120    0.8697    0.0687    0.0346     O
  H121    0.8956    0.0213    0.0424     H
  H122    0.8966    0.0848    0.0116     H
  O123    0.0668    0.0705    0.4336     O
  H124    0.1070    0.1077    0.4347     H
  H125    0.0896    0.0234    0.4448     H
  O126    0.8783    0.1825    0.2824     O
  H127    0.8786    0.1436    0.3033     H
  H128    0.8583    0.2277    0.2941     H
  O129    0.2862    0.2811    0.1406     O
  H130    0.2322    0.2930    0.1475     H
  H131    0.3162    0.3129    0.1571     H
  O132    0.3710    0.5676    0.0361     O
  H133    0.3924    0.5895    0.0127     H
  H134    0.3182    0.5548    0.0294     H
  O135    0.1183    0.6251    0.0623     O
  H136    0.1523    0.5936    0.0468     H
  H137    0.1527    0.6557    0.0782     H
  O138    0.8717    0.6811    0.3405     O
  H139    0.8934    0.6612    0.3640     H
  H140    0.8181    0.6930    0.3470     H
  O141    0.9640    0.4694    0.3891     O
  H142    1.0168    0.4570    0.3957     H
  H143    0.9331    0.4367    0.4057     H
  O144    0.6830    0.6773    0.4339     O
  H145    0.7294    0.6629    0.4467     H
  H146    0.6667    0.7253    0.4467     H
  O147    0.6814    0.3786    0.2863     O
  H148    0.6606    0.3570    0.2628     H
  H149    0.6951    0.4313    0.2794     H
  O150    0.4706    0.7868    0.4841     O
  H151    0.4561    0.7328    0.4793     H
  H152    0.4563    0.7958    0.5103     H
  O153    0.0660    0.1834    0.1888     O
  H154    0.0205    0.1604    0.1787     H
  H155    0.1045    0.1413    0.1887     H
  O156    0.3190    0.4365    0.3116     O
  H157    0.3073    0.4468    0.2852     H
  H158    0.3579    0.3951    0.3106     H
  O159    0.4289    0.6281    0.4689     O
  H160    0.4755    0.6070    0.4569     H
  H161    0.3916    0.6290    0.4485     H
  O162    0.5343    0.2138    0.0157     O
  H163    0.5427    0.2670    0.0221     H
  H164    0.4803    0.2044    0.0223     H
  O165    0.6321    0.9313    0.2164     O
  H166    0.6299    0.8932    0.1961     H
  H167    0.6107    0.9777    0.2049     H
  O168    0.4295    0.8219    0.0578     O
  H169    0.4133    0.7755    0.0712     H
  H170    0.4768    0.8371    0.0706     H
  O171    0.7132    0.2171    0.1086     O
  H172    0.7668    0.2080    0.1024     H
  H173    0.7046    0.2709    0.1019     H
  O174    0.5663    0.3680    0.0316     O
  H175    0.6048    0.3701    0.0518     H
  H176    0.5203    0.3897    0.0433     H
  O177    0.1846    0.6834    0.1840     O
  H178    0.1609    0.7284    0.1951     H
  H179    0.1441    0.6441    0.1846     H
  O180    0.6764    0.1802    0.1859     O
  H181    0.7236    0.1591    0.1961     H
  H182    0.6888    0.1938    0.1594     H
  O183    0.0681    0.3840    0.0904     O
  H184    0.0845    0.3567    0.1140     H
  H185    0.0220    0.3585    0.0827     H
  O186    0.9343    0.3215    0.0595     O
  H187    0.8944    0.3588    0.0602     H
  H188    0.9107    0.2744    0.0707     H
  O189    0.0737    0.5663    0.1857     O
  H190    0.0601    0.5540    0.1594     H
  H191    0.0266    0.5873    0.1968     H
  O192    0.9683    0.2820    0.4859     O
  H193    1.0220    0.2914    0.4788     H
  H194    0.9586    0.2298    0.4780     H
  O195    0.5322    0.0284    0.1097     O
  H196    0.5635    0.0624    0.0934     H
  H197    0.5459    0.0424    0.1355     H
  O198    0.8199    0.6304    0.1596     O
  H199    0.8409    0.6084    0.1359     H
  H200    0.8072    0.6828    0.1529     H
  O201    0.3732    0.0693    0.2863     O
  H202    0.3941    0.0897    0.2629     H
  H203    0.3196    0.0564    0.2799     H
  O204    0.1325    0.3156    0.1586     O
  H205    0.1092    0.2703    0.1698     H
  H206    0.1306    0.3542    0.1789     H
  O207    0.8675    0.5657    0.2836     O
  H208    0.8896    0.5201    0.2952     H
  H209    0.8689    0.6042    0.3040     H
  O210    0.9295    0.1325    0.4663     O
  H211    0.9774    0.1108    0.4548     H
  H212    0.8928    0.1301    0.4463     H
  O213    0.3721    0.3687    0.1879     O
  H214    0.4044    0.4030    0.1720     H
  H215    0.3427    0.4028    0.2037     H
  O216    0.2789    0.9651    0.4841     O
  H217    0.2938    0.9561    0.5105     H
  H218    0.2935    1.0186    0.4792     H
  O219    0.1797    0.3679    0.3427     O
  H220    0.2265    0.3904    0.3315     H
  H221    0.1424    0.3700    0.3224     H
  O222    0.8201    0.9326    0.3111     O
  H223    0.7732    0.9115    0.3220     H
  H224    0.8068    0.9447    0.2846     H
  O225    0.3740    0.8720    0.4364     O
  H226    0.4060    0.8426    0.4534     H
  H227    0.3426    0.9042    0.4535     H
  O228    0.8168    0.6187    0.4657     O
  H229    0.8389    0.6407    0.4888     H
  H230    0.8581    0.6209    0.4468     H
  O231    0.6224    0.1226    0.0617     O
  H232    0.6542    0.1574    0.0775     H
  H233    0.5915    0.1562    0.0463     H
  O234    0.6227    0.6228    0.3135     O
  H235    0.5927    0.6550    0.2966     H
  H236    0.6553    0.5926    0.2963     H
  O237    0.1829    0.5641    0.4408     O
  H238    0.2289    0.5876    0.4300     H
  H239    0.1446    0.6046    0.4402     H
  O240    0.5676    0.6785    0.1920     O
  H241    0.5839    0.7262    0.1789     H
  H242    0.5210    0.6640    0.1793     H
  O243    0.7802    0.9689    0.2363     O
  H244    0.8125    0.9364    0.2195     H
  H245    0.7286    0.9565    0.2291     H
  O246    0.1191    0.9288    0.1609     O
  H247    0.1441    0.9762    0.1684     H
  H248    0.1442    0.9142    0.1368     H
  O249    0.1767    0.1828    0.4366     O
  H250    0.1890    0.1944    0.4101     H
  H251    0.2242    0.1615    0.4471     H
  O252    0.3788    0.0675    0.0913     O
  H253    0.4332    0.0565    0.0970     H
  H254    0.3805    0.1060    0.0716     H
  O255    0.8761    0.6820    0.0347     O
  H256    0.8789    0.6430    0.0543     H
  H257    0.9298    0.6937    0.0286     H
  O258    0.7799    0.4630    0.4842     O
  H259    0.7946    0.4545    0.5103     H
  H260    0.7945    0.5170    0.4791     H
  O261    0.7178    0.5307    0.2659     O
  H262    0.7095    0.5450    0.2389     H
  H263    0.7706    0.5440    0.2708     H
  O264    0.9307    0.6251    0.4092     O
  H265    0.9422    0.5710    0.4027     H
  H266    0.9778    0.6446    0.4196     H
  O267    0.0700    0.3752    0.2823     O
  H268    0.0585    0.3220    0.2762     H
  H269    0.0228    0.3948    0.2939     H
  O270    0.2184    0.7145    0.1088     O
  H271    0.2048    0.7063    0.1350     H
  H272    0.2050    0.7691    0.1039     H
  O273    0.6795    0.8783    0.0358     O
  H274    0.6923    0.9312    0.0295     H
  H275    0.6586    0.8572    0.0122     H
  O276    0.8166    0.1201    0.2133     O
  H277    0.8373    0.1423    0.2370     H
  H278    0.8036    0.0679    0.2201     H
  O279    0.9704    0.7818    0.2314     O
  H280    0.9561    0.7918    0.2584     H
  H281    0.9573    0.7289    0.2274     H
  O282    0.6318    0.3200    0.4085     O
  H283    0.6062    0.2725    0.4163     H
  H284    0.6063    0.3346    0.3848     H
  O285    0.4288    0.3152    0.3101     O
  H286    0.4767    0.3371    0.3211     H
  H287    0.4416    0.3035    0.2842     H
  O288    0.3155    0.1184    0.4666     O
  H289    0.3567    0.1206    0.4471     H
  H290    0.3385    0.1394    0.4893     H
  O291    0.4696    0.2804    0.2368     O
  H292    0.5211    0.2939    0.2297     H
  H293    0.4368    0.3122    0.2199     H
  O294    0.1254    0.9330    0.4666     O
  H295    0.1280    0.8938    0.4466     H
  H296    0.1786    0.9442    0.4726     H
  O297    0.0296    0.7221    0.0159     O
  H298    0.0616    0.6885    0.0319     H
  H299    0.0423    0.7078   -0.0101     H
  O300    0.0669    0.8740    0.0358     O
  H301    0.0545    0.8210    0.0295     H
  H302    0.0878    0.8952    0.0122     H
  O303    0.4714    0.9702    0.3923     O
  H304    0.4386    0.9372    0.4079     H
  H305    0.4591    0.9566    0.3660     H
  O306    0.0324    0.0271    0.3593     O
  H307    0.0458    0.0422    0.3851     H
  H308    0.0638    0.0603    0.3428     H
  O309    0.9333    0.4323    0.3145     O
  H310    0.9435    0.4434    0.3411     H
  H311    0.8941    0.3917    0.3151     H
  O312    0.4313    0.1254    0.2173     O
  H313    0.4438    0.1792    0.2230     H
  H314    0.3933    0.1281    0.1972     H
  O315    0.9339    0.8172    0.3096     O
  H316    0.8931    0.8554    0.3101     H
  H317    0.9108    0.7714    0.3208     H
  O318    0.2867    0.4645    0.2358     O
  H319    0.2965    0.5176    0.2283     H
  H320    0.2335    0.4555    0.2287     H
  O321    0.6209    0.9297    0.4099     O
  H322    0.5682    0.9421    0.4035     H
  H323    0.6422    0.9776    0.4199     H
  O324    0.3671    0.1828    0.3424     O
  H325    0.3688    0.1442    0.3223     H
  H326    0.3896    0.2284    0.3307     H
  O327    0.5349    0.7207    0.2669     O
  H328    0.4813    0.7072    0.2715     H
  H329    0.5440    0.7061    0.2403     H
  O330    0.3769    0.5695    0.3400     O
  H331    0.3569    0.5229    0.3296     H
  H332    0.4311    0.5574    0.3463     H
  O333    0.3795    0.1775    0.0349     O
  H334    0.3548    0.2258    0.0424     H
  H335    0.3546    0.1634    0.0111     H
  O336    0.8201    0.1252    0.4107     O
  H337    0.8410    0.1043    0.3873     H
  H338    0.8058    0.1781    0.4040     H
  O339    0.7142    0.0303    0.0140     O
  H340    0.6835    0.0629    0.0302     H
  H341    0.7676    0.0429    0.0208     H
  O342    0.2174    0.5329    0.0169     O
  H343    0.2039    0.4802    0.0214     H
  H344    0.2033    0.5422   -0.0102     H
  O345    0.3821    0.6872    0.2829     O
  H346    0.3612    0.6641    0.2599     H
  H347    0.3808    0.6459    0.3020     H
  O348    0.5728    0.1826    0.4379     O
  H349    0.5257    0.1621    0.4272     H
  H350    0.5596    0.1959    0.4643     H
  O351    0.0374    0.2220    0.2660     O
  H352    0.0453    0.2073    0.2398     H
  H353   -0.0167    0.2083    0.2713     H
  O354    0.7812    0.7769    0.1412     O
  H355    0.8128    0.8104    0.1569     H
  H356    0.7942    0.7908    0.1148     H
  O357    0.5714    0.0642    0.1844     O
  H358    0.6076    0.1045    0.1849     H
  H359    0.5235    0.0873    0.1955     H
  O360    0.4314    0.6250    0.1616     O
  H361    0.4099    0.6460    0.1384     H
  H362    0.4443    0.5716    0.1549     H
  O363    0.5684    0.8769    0.0910     O
  H364    0.6070    0.8793    0.0712     H
  H365    0.5576    0.9310    0.0972     H
  O366    0.6257    0.8174    0.1604     O
  H367    0.6057    0.8388    0.1370     H
  H368    0.6793    0.8042    0.1543     H
  O369    0.5625    0.5667    0.4334     O
  H370    0.5851    0.5210    0.4447     H
  H371    0.6035    0.6047    0.4340     H
  O372    0.8780    0.5708    0.0926     O
  H373    0.9307    0.5586    0.0985     H
  H374    0.8570    0.5233    0.0816     H
  O375    0.0278    0.5327    0.1101     O
  H376    0.0413    0.4804    0.1036     H
  H377    0.0604    0.5644    0.0936     H
  O378    0.8241    0.3151    0.3134     O
  H379    0.8111    0.3023    0.3394     H
  H380    0.7767    0.3375    0.3027     H
  O381    0.6200    0.3192    0.2186     O
  H382    0.6402    0.2725    0.2070     H
  H383    0.6199    0.3566    0.1978     H
  O384    0.1226    0.1187    0.3112     O
  H385    0.0927    0.1536    0.2954     H
  H386    0.1543    0.1522    0.3271     H
  O387    0.1850    0.3828    0.0343     O
  H388    0.1437    0.3818    0.0535     H
  H389    0.1622    0.3612    0.0115     H
  O390    0.3202    0.8221    0.3150     O
  H391    0.3362    0.7749    0.3022     H
  H392    0.2726    0.8363    0.3023     H
  O393    0.1230    0.8144    0.2165     O
  H394    0.0694    0.8030    0.2217     H
  H395    0.1215    0.8545    0.1970     H
  O396    0.7804    0.2772    0.3883     O
  H397    0.7288    0.2909    0.3947     H
  H398    0.8126    0.3094    0.4053     H
  O399    0.6830    0.5648    0.1892     O
  H400    0.7287    0.5892    0.1785     H
  H401    0.6445    0.6051    0.1893     H
  O402    0.5670    0.8707    0.7850     O
  H403    0.5200    0.8958    0.7922     H
  H404    0.5828    0.8967    0.7611     H
  O405    0.6792    0.3721    0.5941     O
  H406    0.7265    0.3921    0.5825     H
  H407    0.6423    0.3722    0.5735     H
  O408    0.3219    0.9313    0.5588     O
  H409    0.3355    0.9774    0.5714     H
  H410    0.2731    0.9148    0.5715     H
  O411    0.9312    0.6306    0.7153     O
  H412    0.9159    0.6049    0.7392     H
  H413    0.9775    0.6043    0.7074     H
  O414    0.9327    0.9378    0.5649     O
  H415    0.9780    0.9136    0.5547     H
  H416    0.8937    0.8968    0.5650     H
  O417    0.3717    0.6797    0.5933     O
  H418    0.3720    0.6422    0.5726     H
  H419    0.3918    0.7265    0.5817     H
  O420    0.3205    0.6196    0.7184     O
  H421    0.2734    0.6411    0.7067     H
  H422    0.3578    0.6210    0.6982     H
  O423    0.8169    0.4307    0.5596     O
  H424    0.8400    0.4778    0.5707     H
  H425    0.8573    0.3935    0.5604     H
  O426    0.8722    0.3788    0.9368     O
  H427    0.8419    0.3454    0.9214     H
  H428    0.9041    0.3438    0.9528     H
  O429    0.3178    0.6236    0.9089     O
  H430    0.3056    0.6772    0.9029     H
  H431    0.3568    0.6266    0.9286     H
  O432    0.4340    0.1184    0.9080     O
  H433    0.4801    0.1395    0.9199     H
  H434    0.3957    0.1192    0.9283     H
  O435    0.2188    0.2228    0.8597     O
  H436    0.2707    0.2095    0.8532     H
  H437    0.1870    0.1894    0.8432     H
  O438    0.6258    0.4352    0.9650     O
  H439    0.6051    0.4125    0.9885     H
  H440    0.6786    0.4472    0.9711     H
  O441    0.6204    0.4307    0.6607     O
  H442    0.5671    0.4445    0.6544     H
  H443    0.6411    0.4108    0.6371     H
  O444    0.1309    0.8191    0.9069     O
  H445    0.1295    0.8569    0.9270     H
  H446    0.1089    0.7726    0.9187     H
  O447    0.2838    0.7798    0.8923     O
  H448    0.2301    0.7940    0.8968     H
  H449    0.2928    0.7928    0.8657     H
  O450    0.4317    0.4365    0.5642     O
  H451    0.3928    0.3963    0.5649     H
  H452    0.4426    0.4472    0.5910     H
  O453    0.2214    0.0350    0.7682     O
  H454    0.2083    0.0449    0.7412     H
  H455    0.2083   -0.0183    0.7722     H
  O456    0.6172    0.8206    0.9672     O
  H457    0.6197    0.8580    0.9470     H
  H458    0.6399    0.7738    0.9559     H
  O459    0.1879    0.8790    0.7827     O
  H460    0.1468    0.8778    0.8028     H
  H461    0.1643    0.8584    0.7605     H
  O462    0.1839    0.0657    0.6894     O
  H463    0.1450    0.1068    0.6893     H
  H464    0.2289    0.0891    0.6785     H
  O465    0.4689    0.4694    0.6410     O
  H466    0.4551    0.5217    0.6477     H
  H467    0.4354    0.4374    0.6567     H
  O468    0.9286    0.1199    0.6599     O
  H469    0.9416    0.0681    0.6535     H
  H470    0.9767    0.1419    0.6703     H
  O471    0.8753    0.8768    0.6859     O
  H472    0.9068    0.8450    0.7032     H
  H473    0.8444    0.9076    0.7027     H
  O474    0.1249    0.4345    0.7156     O
  H475    0.1788    0.4468    0.7216     H
  H476    0.1048    0.4130    0.7389     H
  O477    0.1798    0.8712    0.5888     O
  H478    0.1925    0.8190    0.5951     H
  H479    0.1600    0.8930    0.6129     H
  O480    0.4338    0.9318    0.8118     O
  H481    0.4449    0.9446    0.8383     H
  H482    0.3941    0.8924    0.8133     H
  O483    0.1246    0.3186    0.9678     O
  H484    0.0709    0.3061    0.9733     H
  H485    0.1221    0.3578    0.9482     H
  O486    0.6818    0.0639    0.9385     O
  H487    0.6428    0.1040    0.9394     H
  H488    0.6934    0.0532    0.9653     H
  O489    0.8200    0.8194    0.5649     O
  H490    0.7718    0.8407    0.5539     H
  H491    0.8073    0.8072    0.5908     H
  O492    0.8791    0.0706    0.8402     O
  H493    0.8574    0.0235    0.8295     H
  H494    0.9314    0.0570    0.8470     H
  O495    0.9703    0.9726    0.6421     O
  H496    0.9378    0.9397    0.6575     H
  H497    0.9574    0.9593    0.6156     H
  O498    0.0665    0.6843    0.9415     O
  H499    0.0210    0.6614    0.9306     H
  H500    0.1052    0.6433    0.9405     H
  O501    0.7218    0.7170    0.8615     O
  H502    0.7090    0.7692    0.8547     H
  H503    0.6888    0.6853    0.8451     H
  O504    0.8675    0.1832    0.5920     O
  H505    0.8897    0.1595    0.6147     H
  H506    0.8698    0.1434    0.5724     H
  O507    0.5345    0.5354    0.8596     O
  H508    0.5433    0.4813    0.8525     H
  H509    0.4818    0.5449    0.8529     H
  O510    0.6858    0.8705    0.8403     O
  H511    0.6636    0.8917    0.8635     H
  H512    0.6441    0.8720    0.8215     H
  O513    0.0715    0.8795    0.8415     O
  H514    0.0862    0.8540    0.8647     H
  H515    0.0236    0.8534    0.8334     H
  O516    0.5675    0.3798    0.8386     O
  H517    0.5218    0.3549    0.8317     H
  H518    0.5834    0.3548    0.8634     H
  O519    0.3197    0.3208    0.5657     O
  H520    0.2726    0.3360    0.5526     H
  H521    0.3348    0.2732    0.5532     H
  O522    0.3148    0.1271    0.6572     O
  H523    0.3035    0.1802    0.6518     H
  H524    0.3548    0.1290    0.6771     H
  O525    0.1222    0.4346    0.9116     O
  H526    0.1432    0.4123    0.8880     H
  H527    0.0697    0.4473    0.9052     H
  O528    0.8691    0.0713    0.5335     O
  H529    0.8954    0.0242    0.5413     H
  H530    0.8945    0.0863    0.5099     H
  O531    0.0661    0.0677    0.9370     O
  H532    0.1061    0.1063    0.9356     H
  H533    0.0546    0.0556    0.9102     H
  O534    0.8802    0.1879    0.7829     O
  H535    0.8586    0.1647    0.7603     H
  H536    0.8802    0.1465    0.8022     H
  O537    0.2833    0.2824    0.6420     O
  H538    0.2927    0.2957    0.6153     H
  H539    0.2296    0.2952    0.6462     H
  O540    0.3679    0.5684    0.5351     O
  H541    0.3938    0.5835    0.5114     H
  H542    0.3940    0.5218    0.5431     H
  O543    0.1226    0.6221    0.5639     O
  H544    0.1574    0.5921    0.5476     H
  H545    0.1562    0.6547    0.5789     H
  O546    0.8765    0.6857    0.8411     O
  H547    0.8743    0.6453    0.8220     H
  H548    0.8227    0.6962    0.8473     H
  O549    0.9681    0.4698    0.8886     O
  H550    0.9563    0.5214    0.8962     H
  H551    0.9352    0.4374    0.9052     H
  O552    0.6850    0.6836    0.9371     O
  H553    0.6443    0.6438    0.9358     H
  H554    0.6963    0.6950    0.9109     H
  O555    0.6870    0.3785    0.7831     O
  H556    0.6455    0.3781    0.8025     H
  H557    0.6635    0.3583    0.7604     H
  O558    0.4634    0.7809    0.9824     O
  H559    0.4545    0.7951    1.0089     H
  H560    0.5169    0.7951    0.9776     H
  O561    0.0685    0.1790    0.6889     O
  H562    0.0552    0.1918    0.7152     H
  H563    0.0888    0.2268    0.6782     H
  O564    0.3159    0.4318    0.8086     O
  H565    0.3568    0.3942    0.8093     H
  H566    0.3386    0.4782    0.8197     H
  O567    0.4294    0.6302    0.9671     O
  H568    0.4765    0.6085    0.9558     H
  H569    0.4423    0.6827    0.9727     H
  O570    0.5295    0.2196    0.5136     O
  H571    0.5623    0.1872    0.5302     H
  H572    0.5428    0.2712    0.5204     H
  O573    0.6284    0.9327    0.7186     O
  H574    0.6280    0.8941    0.6981     H
  H575    0.6084    0.9786    0.7067     H
  O576    0.4294    0.8153    0.5610     O
  H577    0.4763    0.8380    0.5713     H
  H578    0.3925    0.8571    0.5610     H
  O579    0.7160    0.2182    0.6091     O
  H580    0.7693    0.2090    0.6026     H
  H581    0.7075    0.2722    0.6026     H
  O582    0.5701    0.3689    0.5341     O
  H583    0.5853    0.3947    0.5113     H
  H584    0.5223    0.3958    0.5424     H
  O585    0.1841    0.6825    0.6840     O
  H586    0.1614    0.7279    0.6954     H
  H587    0.1432    0.6440    0.6847     H
  O588    0.6814    0.1851    0.6867     O
  H589    0.6935    0.1967    0.6597     H
  H590    0.6431    0.1455    0.6855     H
  O591    0.0700    0.3808    0.5931     O
  H592    0.1069    0.3806    0.5723     H
  H593    0.0230    0.3601    0.5818     H
  O594    0.9317    0.3238    0.5618     O
  H595    0.9453    0.3105    0.5359     H
  H596    0.9103    0.2762    0.5727     H
  O597    0.0662    0.5689    0.6858     O
  H598    0.0536    0.5555    0.6590     H
  H599    0.0869    0.5225    0.6965     H
  O600    0.9692    0.2820    0.9836     O
  H601    0.9546    0.2923    1.0106     H
  H602    0.9560    0.2293    0.9796     H
  O603    0.5292    0.0358    0.6103     O
  H604    0.5618    0.0658    0.5941     H
  H605    0.5417   -0.0182    0.6037     H
  O606    0.8165    0.6308    0.6593     O
  H607    0.8396    0.6093    0.6363     H
  H608    0.8573    0.6292    0.6784     H
  O609    0.3706    0.0687    0.7829     O
  H610    0.3923    0.0207    0.7935     H
  H611    0.3182    0.0564    0.7773     H
  O612    0.1284    0.3137    0.6579     O
  H613    0.1082    0.3370    0.6355     H
  H614    0.1275    0.3552    0.6777     H
  O615    0.8744    0.5707    0.7849     O
  H616    0.8943    0.5239    0.7953     H
  H617    0.8203    0.5586    0.7784     H
  O618    0.9344    0.1333    0.9692     O
  H619    0.9796    0.1115    0.9577     H
  H620    0.8953    0.1314    0.9488     H
  O621    0.3767    0.3727    0.6860     O
  H622    0.3421    0.3431    0.6709     H
  H623    0.3430    0.4054    0.7022     H
  O624    0.2815    0.9693    0.9837     O
  H625    0.3148    0.9357    0.9682     H
  H626    0.2933    0.9561    1.0099     H
  O627    0.1773    0.3701    0.8400     O
  H628    0.2253    0.3924    0.8294     H
  H629    0.1907    0.3186    0.8465     H
  O630    0.8208    0.9346    0.8102     O
  H631    0.7736    0.9131    0.8208     H
  H632    0.8083    0.9464    0.7837     H
  O633    0.3778    0.8759    0.9388     O
  H634    0.3451    0.8415    0.9226     H
  H635    0.4075    0.8419    0.9539     H
  O636    0.8170    0.6158    0.9656     O
  H637    0.8335    0.6421    0.9894     H
  H638    0.7716    0.6426    0.9579     H
  O639    0.6219    0.1237    0.5624     O
  H640    0.6560    0.0928    0.5466     H
  H641    0.6563    0.1559    0.5776     H
  O642    0.6226    0.6280    0.8121     O
  H643    0.5920    0.5935    0.8280     H
  H644    0.6540    0.5940    0.7965     H
  O645    0.1777    0.5697    0.9407     O
  H646    0.1630    0.5230    0.9282     H
  H647    0.2265    0.5845    0.9281     H
  O648    0.5643    0.6825    0.6888     O
  H649    0.6050    0.6428    0.6896     H
  H650    0.5538    0.6935    0.7152     H
  O651    0.7858    0.9663    0.7335     O
  H652    0.7941    1.0195    0.7273     H
  H653    0.7313    0.9572    0.7275     H
  O654    0.1245    0.9282    0.6599     O
  H655    0.0712    0.9411    0.6534     H
  H656    0.1459    0.9754    0.6698     H
  O657    0.1831    0.1768    0.9359     O
  H658    0.1622    0.2244    0.9469     H
  H659    0.1959    0.1902    0.9098     H
  O660    0.3746    0.0665    0.5887     O
  H661    0.4282    0.0552    0.5950     H
  H662    0.3536    0.0883    0.6120     H
  O663    0.8752    0.6788    0.5334     O
  H664    0.9284    0.6908    0.5273     H
  H665    0.8548    0.7260    0.5444     H
  O666    0.7765    0.4689    0.9841     O
  H667    0.7903    0.5206    0.9778     H
  H668    0.8099    0.4368    0.9676     H
  O669    0.7163    0.5372    0.7670     O
  H670    0.7048    0.5451    0.7403     H
  H671    0.7046    0.4826    0.7716     H
  O672    0.9375    0.6193    0.9107     O
  H673    0.8959    0.6195    0.9291     H
  H674    0.9151    0.6412    0.8873     H
  O675    0.0681    0.3704    0.7832     O
  H676    0.1061    0.3704    0.8034     H
  H677    0.0219    0.3921    0.7952     H
  O678    0.2131    0.7213    0.6078     O
  H679    0.2674    0.7068    0.6031     H
  H680    0.2039    0.7077    0.6339     H
  O681    0.6795    0.8793    0.5356     O
  H682    0.6929    0.9315    0.5289     H
  H683    0.6592    0.8573    0.5118     H
  O684    0.8173    0.1198    0.7180     O
  H685    0.7713    0.1418    0.7061     H
  H686    0.8553    0.1200    0.6977     H
  O687    0.9706    0.7849    0.7331     O
  H688    0.9570    0.7310    0.7284     H
  H689    0.9572    0.7935    0.7597     H
  O690    0.6257    0.3178    0.9096     O
  H691    0.6793    0.3073    0.9036     H
  H692    0.6276    0.3577    0.9291     H
  O693    0.4350    0.3231    0.8110     O
  H694    0.4128    0.2764    0.8217     H
  H695    0.4470    0.3099    0.7846     H
  O696    0.3233    0.1207    0.9658     O
  H697    0.2757    0.1418    0.9553     H
  H698    0.3107    0.0680    0.9723     H
  O699    0.4679    0.2783    0.7349     O
  H700    0.4355    0.3109    0.7181     H
  H701    0.5194    0.2927    0.7287     H
  O702    0.1258    0.9291    0.9659     O
  H703    0.1055    0.9762    0.9555     H
  H704    0.1795    0.9412    0.9723     H
  O705    0.0306    0.7154    0.5143     O
  H706    0.0630    0.6839    0.5311     H
  H707    0.0428    0.7677    0.5214     H
  O708    0.0631    0.8686    0.5355     O
  H709    0.0864    0.8903    0.5119     H
  H710    0.1036    0.8693    0.5540     H
  O711    0.4698    0.9694    0.8887     O
  H712    0.4381    0.9366    0.9059     H
  H713    0.4574    1.0206    0.8961     H
  O714    0.0272    0.0312    0.8608     O
  H715    0.0413   -0.0208    0.8546     H
  H716    0.0603    0.0631    0.8443     H
  O717    0.9345    0.4340    0.8140     O
  H718    0.9445    0.4460    0.8406     H
  H719    0.8942    0.3946    0.8148     H
  O720    0.4337    0.1304    0.7143     O
  H721    0.4114    0.1082    0.7380     H
  H722    0.4458    0.1822    0.7210     H
  O723    0.9370    0.8168    0.8101     O
  H724    0.8952    0.8560    0.8101     H
  H725    0.9139    0.7721    0.8205     H
  O726    0.2820    0.4677    0.7332     O
  H727    0.2959    0.4581    0.7598     H
  H728    0.2961    0.5212    0.7288     H
  O729    0.6252    0.9291    0.9089     O
  H730    0.5711    0.9420    0.9022     H
  H731    0.6453    0.9751    0.9196     H
  O732    0.3690    0.1877    0.8405     O
  H733    0.3692    0.1466    0.8216     H
  H734    0.3909    0.1645    0.8635     H
  O735    0.5277    0.7167    0.7644     O
  H736    0.5601    0.6856    0.7807     H
  H737    0.5407    0.7698    0.7713     H
  O738    0.3817    0.5655    0.8407     O
  H739    0.3799    0.6064    0.8220     H
  H740    0.3599    0.5882    0.8641     H
  O741    0.3766    0.1811    0.5340     O
  H742    0.3790    0.1420    0.5533     H
  H743    0.4308    0.1931    0.5282     H
  O744    0.8210    0.1305    0.9098     O
  H745    0.8361    0.1051    0.8863     H
  H746    0.7735    0.1046    0.9175     H
  O747    0.7149    0.0288    0.5159     O
  H748    0.7054    0.0433    0.4896     H
  H749    0.7685    0.0434    0.5205     H
  O750    0.2169    0.5301    0.5162     O
  H751    0.2706    0.5438    0.5210     H
  H752    0.2082    0.5441    0.4897     H
  O753    0.3769    0.6810    0.7865     O
  H754    0.4298    0.6942    0.7801     H
  H755    0.3559    0.6601    0.7629     H
  O756    0.5693    0.1757    0.9399     O
  H757    0.5898    0.2240    0.9293     H
  H758    0.5561    0.1882    0.9660     H
  O759    0.0324    0.2135    0.7642     O
  H760   -0.0201    0.2053    0.7709     H
  H761    0.0427    0.2676    0.7716     H
  O762    0.7786    0.7859    0.6385     O
  H763    0.8109    0.8171    0.6549     H
  H764    0.7920    0.7330    0.6452     H
  O765    0.5731    0.0692    0.6853     O
  H766    0.5599    0.0570    0.6591     H
  H767    0.5257    0.0908    0.6962     H
  O768    0.4297    0.6202    0.6602     O
  H769    0.4154    0.6453    0.6363     H
  H770    0.4772    0.6456    0.6679     H
  O771    0.5630    0.8776    0.5903     O
  H772    0.6039    0.8782    0.5715     H
  H773    0.5868    0.8566    0.6135     H
  O774    0.6266    0.8200    0.6587     O
  H775    0.6060    0.7724    0.6695     H
  H776    0.6794    0.8078    0.6523     H
  O777    0.5647    0.5699    0.9350     O
  H778    0.5865    0.5229    0.9459     H
  H779    0.5535    0.5569    0.9086     H
  O780    0.8773    0.5672    0.5922     O
  H781    0.8786    0.6069    0.5719     H
  H782    0.9303    0.5554    0.5970     H
  O783    0.0266    0.5315    0.6088     O
  H784    0.0610    0.5630    0.5933     H
  H785    0.0412    0.4790    0.6028     H
  O786    0.8203    0.3225    0.8162     O
  H787    0.8365    0.2752    0.8032     H
  H788    0.7736    0.3374    0.8032     H
  O789    0.6169    0.3201    0.7189     O
  H790    0.6384    0.2735    0.7073     H
  H791    0.6175    0.3576    0.6984     H
  O792    0.1260    0.1256    0.8135     O
  H793    0.0938    0.1559    0.7961     H
  H794    0.1574    0.0944    0.7967     H
  O795    0.1804    0.3795    0.5346     O
  H796    0.1941    0.4327    0.5279     H
  H797    0.1605    0.3581    0.5111     H
  O798    0.3179    0.8168    0.8173     O
  H799    0.3343    0.7702    0.8042     H
  H800    0.2722    0.8332    0.8035     H
  O801    0.1246    0.8176    0.7179     O
  H802    0.0709    0.8062    0.7232     H
  H803    0.1230    0.8568    0.6980     H
  O804    0.7798    0.2871    0.8920     O
  H805    0.7939    0.2329    0.8966     H
  H806    0.7937    0.2962    0.8657     H
  O807    0.6822    0.5674    0.6901     O
  H808    0.6664    0.5206    0.6771     H
  H809    0.7292    0.5828    0.6771     H
 Cl810    0.6819    0.3730    0.0901    Cl
 Na811    0.5689    0.8686    0.2853    Na

